Version 4
SHEET 1 1456 1172
WIRE -1920 -128 -2592 -128
WIRE -2592 -32 -2592 -128
WIRE -2384 -32 -2592 -32
WIRE -1920 -32 -1920 -128
WIRE -1920 -32 -2048 -32
WIRE 32 32 -304 32
WIRE 144 32 32 32
WIRE 256 32 144 32
WIRE 368 32 256 32
WIRE 480 32 368 32
WIRE 576 32 480 32
WIRE 720 32 576 32
WIRE -2592 48 -2592 -32
WIRE -2384 48 -2592 48
WIRE -1808 48 -2048 48
WIRE -1760 48 -1808 48
WIRE -1456 48 -1680 48
WIRE -1232 48 -1456 48
WIRE -1152 48 -1232 48
WIRE -1072 48 -1152 48
WIRE -864 48 -992 48
WIRE -704 48 -864 48
WIRE -336 48 -448 48
WIRE -304 48 -304 32
WIRE -304 48 -336 48
WIRE 32 48 32 32
WIRE 144 48 144 32
WIRE 256 48 256 32
WIRE 368 48 368 32
WIRE 480 48 480 32
WIRE 576 48 576 32
WIRE -1456 64 -1456 48
WIRE -1232 80 -1232 48
WIRE -1152 80 -1152 48
WIRE -864 96 -864 48
WIRE 720 96 720 32
WIRE -1808 112 -1808 48
WIRE -336 112 -336 48
WIRE -2592 128 -2736 128
WIRE -2560 128 -2592 128
WIRE -2384 128 -2560 128
WIRE -2000 128 -2048 128
WIRE -1904 128 -1936 128
WIRE 32 144 32 112
WIRE 144 144 144 112
WIRE 256 144 256 112
WIRE 368 144 368 112
WIRE 480 144 480 112
WIRE 576 144 576 112
WIRE -2560 160 -2560 128
WIRE -1456 160 -1456 144
WIRE -1456 160 -1568 160
WIRE -1232 160 -1232 144
WIRE -1152 160 -1152 144
WIRE -1904 176 -1904 128
WIRE -1456 176 -1456 160
WIRE -2384 208 -2416 208
WIRE -1984 208 -2048 208
WIRE -864 208 -864 160
WIRE -1808 224 -1808 176
WIRE 720 224 720 160
WIRE -1232 256 -1232 240
WIRE -1152 256 -1152 240
WIRE -576 256 -576 144
WIRE -336 256 -336 192
WIRE -336 256 -576 256
WIRE 32 272 32 224
WIRE 144 272 144 224
WIRE 144 272 32 272
WIRE 256 272 256 224
WIRE 256 272 144 272
WIRE 368 272 368 224
WIRE 368 272 256 272
WIRE 480 272 480 224
WIRE 480 272 368 272
WIRE 576 272 576 224
WIRE 576 272 480 272
WIRE -1984 288 -1984 208
WIRE -1568 288 -1568 160
WIRE -1568 288 -1984 288
WIRE -2736 304 -2736 208
WIRE -2416 304 -2416 208
WIRE -576 304 -576 256
WIRE 32 336 32 272
WIRE -864 432 -864 288
WIRE -576 432 -576 384
WIRE -576 432 -864 432
WIRE -576 496 -576 432
FLAG 32 336 0
FLAG 720 224 0
FLAG -576 496 0
FLAG -2416 304 0
FLAG -2736 304 0
FLAG -1904 176 0
FLAG -1808 224 0
FLAG -1456 256 0
FLAG -1232 256 0
FLAG -1152 256 0
FLAG -2560 304 0
SYMBOL cap 16 48 R0
SYMATTR InstName C1
SYMATTR Value 680µ
SYMBOL cap 128 48 R0
SYMATTR InstName C2
SYMATTR Value 680µ
SYMBOL cap 240 48 R0
SYMATTR InstName C3
SYMATTR Value 680µ
SYMBOL cap 352 48 R0
SYMATTR InstName C4
SYMATTR Value 680µ
SYMBOL cap 464 48 R0
SYMATTR InstName C5
SYMATTR Value 10µF
SYMBOL cap 560 48 R0
SYMATTR InstName C6
SYMATTR Value 10µF
SYMBOL res 16 128 R0
SYMATTR InstName R1
SYMATTR Value .08
SYMBOL res 128 128 R0
SYMATTR InstName R2
SYMATTR Value 0.08
SYMBOL res 240 128 R0
SYMATTR InstName R3
SYMATTR Value 0.08
SYMBOL res 352 128 R0
SYMATTR InstName R4
SYMATTR Value 0.08
SYMBOL res 464 128 R0
SYMATTR InstName R5
SYMATTR Value 0.02
SYMBOL res 560 128 R0
SYMATTR InstName R6
SYMATTR Value 0.02
SYMBOL voltage -2736 112 R0
WINDOW 123 0 0 Left 0
WINDOW 39 24 124 Left 2
SYMATTR SpiceLine Rser=.5
SYMATTR InstName V1
SYMATTR Value 12
SYMBOL res -592 288 R0
SYMATTR InstName R7
SYMATTR Value 1000
SYMBOL res -352 96 R0
SYMATTR InstName R8
SYMATTR Value 500
SYMBOL mc34063 -2144 64 R0
SYMATTR InstName U2
SYMBOL res -2608 32 R0
SYMATTR InstName R9
SYMATTR Value .5
SYMBOL cap -1936 112 R90
WINDOW 0 0 32 VBottom 2
WINDOW 3 32 32 VTop 2
SYMATTR InstName C7
SYMATTR Value 470p
SYMBOL schottky -1792 176 R180
WINDOW 0 24 64 Left 2
WINDOW 3 24 0 Left 2
SYMATTR InstName D2
SYMATTR Value SS24
SYMBOL ind -1776 64 R270
WINDOW 0 32 56 VTop 2
WINDOW 3 5 56 VBottom 2
SYMATTR InstName L1
SYMATTR Value 220µ
SYMATTR SpiceLine Rser=.1
SYMBOL res -1472 48 R0
SYMATTR InstName R10
SYMATTR Value 3600
SYMBOL res -1472 160 R0
SYMATTR InstName R11
SYMATTR Value 1200
SYMBOL cap -1248 80 R0
SYMATTR InstName C8
SYMATTR Value 220µ
SYMBOL cap -1168 80 R0
SYMATTR InstName C9
SYMATTR Value 220µ
SYMBOL res -1248 144 R0
SYMATTR InstName R12
SYMATTR Value .2
SYMBOL res -1168 144 R0
SYMATTR InstName R13
SYMATTR Value .2
SYMBOL cap -2576 160 R0
SYMATTR InstName C10
SYMATTR Value 220µ
SYMBOL res -2576 208 R0
SYMATTR InstName R14
SYMATTR Value .2
SYMBOL res -976 32 R90
WINDOW 0 0 56 VBottom 2
WINDOW 3 32 56 VTop 2
SYMATTR InstName R15
SYMATTR Value .1
SYMBOL load 704 96 R0
WINDOW 123 0 0 Left 0
WINDOW 39 0 0 Left 0
SYMATTR InstName I1
SYMATTR Value PULSE(0.01A 2A 20ms 0 0 577us 5.192ms 1000)
SYMBOL PowerProducts\\LT1086H -576 48 R0
SYMATTR InstName U1
SYMBOL cap -880 96 R0
SYMATTR InstName C11
SYMATTR Value 10µF
SYMBOL res -880 192 R0
SYMATTR InstName R16
SYMATTR Value 0.01
TEXT -352 504 Left 2 !.tran 0 100ms 0 10ns
TEXT -2416 -176 Left 2 !.inc MC34063.lib
